Begin   03:38:31, 11/17/100

Input file: "C:\FNDTN\ACTIVE\PROJECTS\RSS_VHDL\rss_vhdl.xnf"
Output file: "C:\FNDTN\ACTIVE\PROJECTS\RSS_VHDL\rss_vhdl.edf"
Conversion to Edif 2.0.0 finished successfully !

End     03:38:31, 11/17/100

