Begin   02:50:56, 11/15/100

Input file: "C:\FNDTN\ACTIVE\PROJECTS\RS232CON\rs232con.xnf"
Output file: "C:\FNDTN\ACTIVE\PROJECTS\RS232CON\rs232con.edf"
Conversion to Edif 2.0.0 finished successfully !

End     02:50:57, 11/15/100

