Missing output file - "C:\FNDTN\ACTIVE\PROJECTS\TEST_CEN\test_cen.edf" assumed
Log file: "C:\FNDTN\ACTIVE\PROJECTS\TEST_CEN\xnf2edf.log"
Input file: "C:\FNDTN\ACTIVE\PROJECTS\TEST_CEN\test_cen.xnf"
Output file: "C:\FNDTN\ACTIVE\PROJECTS\TEST_CEN\test_cen.edf"
Conversion to Edif 2.0.0 finished successfully !
