Missing output file - "C:\FNDTN\ACTIVE\PROJECTS\TEST\test.edf" assumed
Log file: "C:\FNDTN\ACTIVE\PROJECTS\TEST\xnf2edf.log"
Input file: "C:\FNDTN\ACTIVE\PROJECTS\TEST\test.xnf"
Output file: "C:\FNDTN\ACTIVE\PROJECTS\TEST\test.edf"
Conversion to Edif 2.0.0 finished successfully !
