Begin   16:24:14, 01/17/101

Input file: "C:\FNDTN\ACTIVE\PROJECTS\RS232_ST\rs232_st.xnf"
Output file: "C:\FNDTN\ACTIVE\PROJECTS\RS232_ST\rs232_st.edf"
Conversion to Edif 2.0.0 finished successfully !

End     16:24:14, 01/17/101

