Missing output file - "C:\FNDTN\ACTIVE\PROJECTS\TEST_IT\test_it.edf" assumed
Log file: "C:\FNDTN\ACTIVE\PROJECTS\TEST_IT\xnf2edf.log"
Input file: "C:\FNDTN\ACTIVE\PROJECTS\TEST_IT\test_it.xnf"
Output file: "C:\FNDTN\ACTIVE\PROJECTS\TEST_IT\test_it.edf"
Conversion to Edif 2.0.0 finished successfully !
