Begin   11:44:21, 01/31/101

Input file: "C:\FNDTN\ACTIVE\PROJECTS\TEST_IT\test_it.xnf"
Output file: "C:\FNDTN\ACTIVE\PROJECTS\TEST_IT\test_it.edf"
Conversion to Edif 2.0.0 finished successfully !

End     11:44:21, 01/31/101

