Begin   15:44:42, 12/20/100

Input file: "C:\FNDTN\ACTIVE\PROJECTS\CONFIG_2\config_2.xnf"
Output file: "C:\FNDTN\ACTIVE\PROJECTS\CONFIG_2\config_2.edf"
Conversion to Edif 2.0.0 finished successfully !

End     15:44:42, 12/20/100

