Begin   01:43:59, 12/15/100

Input file: "C:\FNDTN\ACTIVE\PROJECTS\CONFIG_1\config_1.xnf"
Output file: "C:\FNDTN\ACTIVE\PROJECTS\CONFIG_1\config_1.edf"
Conversion to Edif 2.0.0 finished successfully !

End     01:43:59, 12/15/100

