Missing output file - "C:\FNDTN\ACTIVE\PROJECTS\ROW_COLS\row_cols.edf" assumed
Log file: "C:\FNDTN\ACTIVE\PROJECTS\ROW_COLS\xnf2edf.log"
Input file: "C:\FNDTN\ACTIVE\PROJECTS\ROW_COLS\row_cols.xnf"
Output file: "C:\FNDTN\ACTIVE\PROJECTS\ROW_COLS\row_cols.edf"
Conversion to Edif 2.0.0 finished successfully !
