Begin   01:48:16, 02/02/101

Input file: "C:\FNDTN\ACTIVE\PROJECTS\ROW_COLS\row_cols.xnf"
Output file: "C:\FNDTN\ACTIVE\PROJECTS\ROW_COLS\row_cols.edf"
Conversion to Edif 2.0.0 finished successfully !

End     01:48:16, 02/02/101

