Begin   20:54:30, 01/23/101

Input file: "C:\FNDTN\ACTIVE\PROJECTS\TEST\test.xnf"
Output file: "C:\FNDTN\ACTIVE\PROJECTS\TEST\test.edf"
Conversion to Edif 2.0.0 finished successfully !

End     20:54:30, 01/23/101

