Begin   14:54:33, 12/21/100

Input file: "C:\FNDTN\ACTIVE\PROJECTS\CONS_123\cons_123.xnf"
Output file: "C:\FNDTN\ACTIVE\PROJECTS\CONS_123\cons_123.edf"
Conversion to Edif 2.0.0 finished successfully !

End     14:54:33, 12/21/100

