Missing output file - "C:\FNDTN\ACTIVE\PROJECTS\CONS_123\cons_123.edf" assumed
Log file: "C:\FNDTN\ACTIVE\PROJECTS\CONS_123\xnf2edf.log"
Input file: "C:\FNDTN\ACTIVE\PROJECTS\CONS_123\cons_123.xnf"
Output file: "C:\FNDTN\ACTIVE\PROJECTS\CONS_123\cons_123.edf"
Conversion to Edif 2.0.0 finished successfully !
