Begin   13:19:25, 12/12/100

Input file: "C:\FNDTN\ACTIVE\PROJECTS\FINAL_YR\final_yr.xnf"
Output file: "C:\FNDTN\ACTIVE\PROJECTS\FINAL_YR\final_yr.edf"
Conversion to Edif 2.0.0 finished successfully !

End     13:19:25, 12/12/100

