Missing output file - "C:\FNDTN\ACTIVE\PROJECTS\PROJ_3X3\proj_3x3.edf" assumed
Log file: "C:\FNDTN\ACTIVE\PROJECTS\PROJ_3X3\xnf2edf.log"
Input file: "C:\FNDTN\ACTIVE\PROJECTS\PROJ_3X3\proj_3x3.xnf"
Output file: "C:\FNDTN\ACTIVE\PROJECTS\PROJ_3X3\proj_3x3.edf"
Conversion to Edif 2.0.0 finished successfully !
