Begin   15:05:30, 02/10/101

Input file: "C:\FNDTN\ACTIVE\PROJECTS\PROJ_3X3\proj_3x3.xnf"
Output file: "C:\FNDTN\ACTIVE\PROJECTS\PROJ_3X3\proj_3x3.edf"
Conversion to Edif 2.0.0 finished successfully !

End     15:05:30, 02/10/101

