Missing output file - "C:\FNDTN\ACTIVE\PROJECTS\CONFIG_1\config_1.edf" assumed
Log file: "C:\FNDTN\ACTIVE\PROJECTS\CONFIG_1\xnf2edf.log"
Input file: "C:\FNDTN\ACTIVE\PROJECTS\CONFIG_1\config_1.xnf"
Output file: "C:\FNDTN\ACTIVE\PROJECTS\CONFIG_1\config_1.edf"
Conversion to Edif 2.0.0 finished successfully !
