Missing output file - "C:\FNDTN\ACTIVE\PROJECTS\RS232_ST\rs232_st.edf" assumed
Log file: "C:\FNDTN\ACTIVE\PROJECTS\RS232_ST\xnf2edf.log"
Input file: "C:\FNDTN\ACTIVE\PROJECTS\RS232_ST\rs232_st.xnf"
Output file: "C:\FNDTN\ACTIVE\PROJECTS\RS232_ST\rs232_st.edf"
Conversion to Edif 2.0.0 finished successfully !
