Begin   13:27:31, 12/21/100

Input file: "C:\FNDTN\ACTIVE\PROJECTS\TEST_CEN\test_cen.xnf"
Output file: "C:\FNDTN\ACTIVE\PROJECTS\TEST_CEN\test_cen.edf"
Conversion to Edif 2.0.0 finished successfully !

End     13:27:31, 12/21/100

