Missing output file - "C:\FNDTN\ACTIVE\PROJECTS\MATMUL\matmul.edf" assumed
Log file: "C:\FNDTN\ACTIVE\PROJECTS\MATMUL\xnf2edf.log"
Input file: "C:\FNDTN\ACTIVE\PROJECTS\MATMUL\matmul.xnf"
Output file: "C:\FNDTN\ACTIVE\PROJECTS\MATMUL\matmul.edf"
Conversion to Edif 2.0.0 finished successfully !
