Missing output file - "C:\FNDTN\ACTIVE\PROJECTS\USERCONF\userconf.edf" assumed
Log file: "C:\FNDTN\ACTIVE\PROJECTS\USERCONF\xnf2edf.log"
Input file: "C:\FNDTN\ACTIVE\PROJECTS\USERCONF\userconf.xnf"
Output file: "C:\FNDTN\ACTIVE\PROJECTS\USERCONF\userconf.edf"
Conversion to Edif 2.0.0 finished successfully !
