Begin   19:56:06, 01/25/101

Input file: "C:\FNDTN\ACTIVE\PROJECTS\USERCONF\userconf.xnf"
Output file: "C:\FNDTN\ACTIVE\PROJECTS\USERCONF\userconf.edf"
Conversion to Edif 2.0.0 finished successfully !

End     19:56:06, 01/25/101

