Missing output file - "C:\FNDTN\ACTIVE\PROJECTS\CONFIG_3\config_3.edf" assumed
Log file: "C:\FNDTN\ACTIVE\PROJECTS\CONFIG_3\xnf2edf.log"
Input file: "C:\FNDTN\ACTIVE\PROJECTS\CONFIG_3\config_3.xnf"
Output file: "C:\FNDTN\ACTIVE\PROJECTS\CONFIG_3\config_3.edf"
Conversion to Edif 2.0.0 finished successfully !
