Begin   17:30:17, 12/20/100

Input file: "C:\FNDTN\ACTIVE\PROJECTS\CONFIG_3\config_3.xnf"
Output file: "C:\FNDTN\ACTIVE\PROJECTS\CONFIG_3\config_3.edf"
Conversion to Edif 2.0.0 finished successfully !

End     17:30:17, 12/20/100

