Begin   01:18:53, 11/17/100

Input file: "C:\FNDTN\ACTIVE\PROJECTS\TEXT\text.xnf"
Output file: "C:\FNDTN\ACTIVE\PROJECTS\TEXT\text.edf"
Conversion to Edif 2.0.0 finished successfully !

End     01:18:53, 11/17/100

