Missing output file - "C:\FNDTN\ACTIVE\PROJECTS\P_FY_MK3\p_fy_mk3.edf" assumed
Log file: "C:\FNDTN\ACTIVE\PROJECTS\P_FY_MK3\xnf2edf.log"
Input file: "C:\FNDTN\ACTIVE\PROJECTS\P_FY_MK3\p_fy_mk3.xnf"
Output file: "C:\FNDTN\ACTIVE\PROJECTS\P_FY_MK3\p_fy_mk3.edf"
Conversion to Edif 2.0.0 finished successfully !
