Begin   15:20:22, 12/13/100

Input file: "C:\FNDTN\ACTIVE\PROJECTS\P_FY_MK3\p_fy_mk3.xnf"
Output file: "C:\FNDTN\ACTIVE\PROJECTS\P_FY_MK3\p_fy_mk3.edf"
Conversion to Edif 2.0.0 finished successfully !

End     15:20:23, 12/13/100

