Begin   19:42:30, 12/05/100

Input file: "C:\FNDTN\ACTIVE\PROJECTS\RS232_ST\rs232_st.xnf"
Output file: "C:\FNDTN\ACTIVE\PROJECTS\RS232_ST\rs232_st.edf"
Conversion to Edif 2.0.0 finished successfully !

End     19:42:30, 12/05/100

