Missing output file - "C:\FNDTN\ACTIVE\PROJECTS\CONS_INT\cons_int.edf" assumed
Log file: "C:\FNDTN\ACTIVE\PROJECTS\CONS_INT\xnf2edf.log"
Input file: "C:\FNDTN\ACTIVE\PROJECTS\CONS_INT\cons_int.xnf"
Output file: "C:\FNDTN\ACTIVE\PROJECTS\CONS_INT\cons_int.edf"
Conversion to Edif 2.0.0 finished successfully !
