Begin   20:58:46, 01/23/101

Input file: "C:\FNDTN\ACTIVE\PROJECTS\CONS_INT\cons_int.xnf"
Output file: "C:\FNDTN\ACTIVE\PROJECTS\CONS_INT\cons_int.edf"
Conversion to Edif 2.0.0 finished successfully !

End     20:58:46, 01/23/101

