Begin   18:14:19, 12/21/100

Input file: "C:\FNDTN\ACTIVE\PROJECTS\MATMUL\matmul.xnf"
Output file: "C:\FNDTN\ACTIVE\PROJECTS\MATMUL\matmul.edf"
Conversion to Edif 2.0.0 finished successfully !

End     18:14:19, 12/21/100

