Missing output file - "C:\FNDTN\ACTIVE\PROJECTS\FINAL_YR\final_yr.edf" assumed
Log file: "C:\FNDTN\ACTIVE\PROJECTS\FINAL_YR\xnf2edf.log"
Input file: "C:\FNDTN\ACTIVE\PROJECTS\FINAL_YR\final_yr.xnf"
Output file: "C:\FNDTN\ACTIVE\PROJECTS\FINAL_YR\final_yr.edf"
Conversion to Edif 2.0.0 finished successfully !
