Missing output file - "C:\FNDTN\ACTIVE\PROJECTS\SYSTEM_X\system_x.edf" assumed
Log file: "C:\FNDTN\ACTIVE\PROJECTS\SYSTEM_X\xnf2edf.log"
Input file: "C:\FNDTN\ACTIVE\PROJECTS\SYSTEM_X\system_x.xnf"
Output file: "C:\FNDTN\ACTIVE\PROJECTS\SYSTEM_X\system_x.edf"
Conversion to Edif 2.0.0 finished successfully !
