Begin   00:40:51, 02/09/101

Input file: "C:\FNDTN\ACTIVE\PROJECTS\SYSTEM_X\system_x.xnf"
Output file: "C:\FNDTN\ACTIVE\PROJECTS\SYSTEM_X\system_x.edf"
Conversion to Edif 2.0.0 finished successfully !

End     00:40:51, 02/09/101

